7
Properties=species:S:1:pos:R:3 pbc="F F F"
O        1.48359508      -1.01454102      -0.13209027
C        0.84095641       0.01854961      -0.07338810
C       -0.63997579       0.01763741       0.05815734
H       -1.00055765       1.04302575       0.22197240
H        1.40218074       0.94411242      -0.12179540
H       -1.12169614      -0.38836398      -0.87691028
H       -0.96450266      -0.62042018       0.92405431
7
Properties=species:S:1:pos:R:3 pbc="F F F"
O        0.52754605      -1.04802506      -0.86514416
C        0.26047307       0.24293997      -0.43604384
C       -0.74991028       0.51998158       0.36011082
H       -0.95968654       1.51238318       0.69327379
H        0.91453262       1.05723973      -0.77301510
H        0.56778707      -1.23486157      -1.85786578
H       -1.37909203      -0.29331679       0.67888881
