12
Properties=species:S:1:pos:R:3 pbc="F F F"
C       -0.52764721       0.94014004      -0.11339893
C       -0.93852066      -0.54156944       0.02996812
C        0.54721970      -0.92248336      -0.15512283
C        0.91783699       0.52485387       0.23865196
H       -1.02228467       1.67457202       0.53004443
H       -0.60166723       1.27569785      -1.15338296
H       -1.66524934      -0.94563917      -0.68183097
H       -1.28159270      -0.76229354       1.04649563
H        0.94718168      -1.73905323       0.45430956
H        0.77934300      -1.12155872      -1.20682097
H        1.73710689       1.00830062      -0.30281892
H        1.10827355       0.60903306       1.31390589
12
Properties=species:S:1:pos:R:3 pbc="F F F"
C       -0.53783379       0.93957620      -0.14060576
C       -0.94036445      -0.53691036       0.03063689
C        0.54183714      -0.92349211      -0.17678819
C        0.91344540       0.50995123       0.26378547
H       -1.02138805       1.68999801       0.49216692
H       -0.61520407       1.26544214      -1.18315787
H       -1.67327270      -0.94929793      -0.67004097
H       -1.18060443      -0.73939010       1.10555605
H        0.92180019      -1.76130850       0.41669449
H        0.78323837      -1.10312067      -1.22938010
H        1.74328432       1.00227177      -0.25273339
H        1.06506207       0.60628032       1.34386646
12
Properties=species:S:1:pos:R:3 pbc="F F F"
C       -0.54775878       0.93826235      -0.16479283
C       -0.94220526      -0.53276047       0.03215701
C        0.53658618      -0.92483118      -0.19529838
C        0.90968249       0.49446197       0.28762142
H       -1.01778575       1.70319239       0.46015618
H       -0.63470099       1.25626251      -1.20876004
H       -1.67708264      -0.95088252      -0.66332292
H       -1.08423992      -0.71541374       1.15403148
H        0.89591129      -1.78200043       0.38350172
H        0.78827588      -1.08784301      -1.24766338
H        1.74733318       0.99475160      -0.20785970
H        1.02598432       0.60680053       1.37022944
12
Properties=species:S:1:pos:R:3 pbc="F F F"
C       -0.55729875       0.93652170      -0.18644601
C       -0.94385519      -0.52888446       0.03380320
C        0.53165626      -0.92645556      -0.21106614
C        0.90686988       0.47858447       0.31034656
H       -1.01177717       1.71466032       0.43309494
H       -0.65942944       1.24849562      -1.23063774
H       -1.67797800      -0.95107055      -0.66043886
H       -0.99356381      -0.69183224       1.19351096
H        0.86964008      -1.80131386       0.35427583
H        0.79481364      -1.07538613      -1.26222026
H        1.75003416       0.98619743      -0.16768780
H        0.99088835       0.61048326       1.39346534
12
Properties=species:S:1:pos:R:3 pbc="F F F"
C       -0.56640471       0.93457485      -0.20604599
C       -0.94523657      -0.52511674       0.03498838
C        0.52713697      -0.92831286      -0.22446967
C        0.90513934       0.46243246       0.33213156
H       -1.00367315       1.72470406       0.41013337
H       -0.68870988       1.24231881      -1.24914688
H       -1.67685307      -0.95032657      -0.66055452
H       -0.90891550      -0.66955483       1.22565435
H        0.84309911      -1.81933815       0.32856142
H        0.80298802      -1.06540483      -1.27351285
H        1.75192132       0.97690003      -0.13163116
H        0.95950811       0.61712377       1.41389199
12
Properties=species:S:1:pos:R:3 pbc="F F F"
C       -0.57508358       0.93257810      -0.22402896
C       -0.94634158      -0.52135236       0.03530693
C        0.52306011      -0.93036053      -0.23584002
C        0.90449769       0.44607592       0.35313446
H       -0.99378732       1.73354840       0.39049731
H       -0.72185267       1.23780198      -1.26457128
H       -1.67432309      -0.94897065      -0.66310349
H       -0.83017168      -0.64911952       1.25202557
H        0.81642273      -1.83614054       0.30591181
H        0.81275478      -1.05758768      -1.28194857
H        1.75333149       0.96707372      -0.09911674
H        0.93149312       0.62645316       1.43173297
12
Properties=species:S:1:pos:R:3 pbc="F F F"
C       -0.58339045       0.93065108      -0.24073776
C       -0.94720449      -0.51753829       0.03445260
C        0.51942473      -0.93258657      -0.24542656
C        0.90488540       0.42956763       0.37346209
H       -0.98241446       1.74131896       0.37363833
H       -0.75828515       1.23502297      -1.27707013
H       -1.67072262      -0.94716986      -0.66789396
H       -0.75695046      -0.63082961       1.27395264
H        0.78970070      -1.85173564       0.28610188
H        0.82398706      -1.05176923      -1.28783641
H        1.75442026       0.95688207      -0.06975634
H        0.90654947       0.63818650       1.44711361
12
Properties=species:S:1:pos:R:3 pbc="F F F"
C       -0.59141389       0.92887558      -0.25646350
C       -0.94787716      -0.51364789       0.03224989
C        0.51620458      -0.93497106      -0.25345464
C        0.90619128       0.41294691       0.39321547
H       -0.96986074       1.74811362       0.35905797
H       -0.79734737       1.23396932      -1.28679534
H       -1.66631637      -0.94506364      -0.67473460
H       -0.68870441      -0.61476399       1.29254007
H        0.76306235      -1.86613472       0.26888266
H        0.83646299      -1.04776759      -1.29147290
H        1.75525105       0.94646370      -0.04316841
H        0.88434770       0.65197976       1.46014333
12
Properties=species:S:1:pos:R:3 pbc="F F F"
C       -0.59926081       0.92730183      -0.27142049
C       -0.94840245      -0.50967650       0.02865847
C        0.51335309      -0.93747290      -0.26012967
C        0.90827848       0.39626505       0.41248533
H       -0.95643751       1.75400700       0.34632581
H       -0.83823306       1.23452681      -1.29392592
H       -1.66133951      -0.94279775      -0.68335419
H       -0.62487714      -0.60084179       1.30864179
H        0.73665318      -1.87935066       0.25397057
H        0.84990319      -1.04536286      -1.29316069
H        1.75581546       0.93596940      -0.01901029
H        0.86454710       0.66743237       1.47091928
12
Properties=species:S:1:pos:R:3 pbc="F F F"
C       -0.60711036       0.92598360      -0.28582968
C       -0.94886320      -0.50558485       0.02364194
C        0.51078935      -0.94000142      -0.26562129
C        0.91098477       0.37959962       0.43131548
H       -0.94249829       1.75910120       0.33503594
H       -0.87979954       1.23657491      -1.29881372
H       -1.65608571      -0.94049767      -0.69341546
H       -0.56476894      -0.58922397       1.32332486
H        0.71065330      -1.89137590       0.24101167
H        0.86392953      -1.04424128      -1.29312636
H        1.75603801       0.92553509       0.00299029
H        0.84673108       0.68413067       1.47948633
12
Properties=species:S:1:pos:R:3 pbc="F F F"
C       -0.61509491       0.92496416      -0.29978060
C       -0.94930584      -0.50138680       0.01727407
C        0.50845511      -0.94252859      -0.27006422
C        0.91418456       0.36302385       0.44974716
H       -0.92827890       1.76349701       0.32492080
H       -0.92158580       1.23995130      -1.30168882
H       -1.65062061      -0.93822577      -0.70481920
H       -0.50775592      -0.57960794       1.33699555
H        0.68515441      -1.90221712       0.22991548
H        0.87828485      -1.04430167      -1.29162615
H        1.75587915       0.91531946       0.02309140
H        0.83068389       0.70151212       1.48603453
12
Properties=species:S:1:pos:R:3 pbc="F F F"
C       -0.62333777       0.92428206      -0.31339162
C       -0.94977112      -0.49705853       0.00957977
C        0.50628736      -0.94499322      -0.27355228
C        0.91777581       0.34661529       0.46778049
H       -0.91396904       1.76727984       0.31573778
H       -0.96311958       1.24453200      -1.30283408
H       -1.64501120      -0.93601332      -0.71746409
H       -0.45324594      -0.57190983       1.35023378
H        0.66024279      -1.91186269       0.22055808
H        0.89270513      -1.04538878      -1.28881832
H        1.75529987       0.90542712       0.04148027
H        0.81614368       0.71909005       1.49069023
12
Properties=species:S:1:pos:R:3 pbc="F F F"
C       -0.63196101       0.92397307      -0.32672730
C       -0.95029925      -0.49258547       0.00061437
C        0.50421872      -0.94734341      -0.27616390
C        0.92166634       0.33044484       0.48542273
H       -0.89975908       1.77052929       0.30730055
H       -1.00396089       1.25017050      -1.30256813
H       -1.63932982      -0.93388991      -0.73123099
H       -0.40068225      -0.56601029       1.36344650
H        0.63598986      -1.92033103       0.21281895
H        0.90694919      -1.04734922      -1.28486493
H        1.75426587       0.89593876       0.05831761
H        0.80290231       0.73645287       1.49363454
12
Properties=species:S:1:pos:R:3 pbc="F F F"
C       -0.64107363       0.92406619      -0.33983016
C       -0.95092353      -0.48795045      -0.00955178
C        0.50218132      -0.94953017      -0.27796926
C        0.92577741       0.31456817       0.50269118
H       -0.88582950       1.77331676       0.29945868
H       -1.04369314       1.25670252      -1.30125771
H       -1.63366372      -0.93187824      -0.74596980
H       -0.34955016      -0.56181524       1.37698949
H        0.61245563      -1.92767297       0.20654042
H        0.92079222      -1.04999856      -1.27992513
H        1.75275626       0.88689421       0.07375173
H        0.79077082       0.75329778       1.49507234
12
Properties=species:S:1:pos:R:3 pbc="F F F"
C       -0.65076508       0.92458804      -0.35271619
C       -0.95166682      -0.48314427      -0.02087056
C        0.50011060      -0.95151758      -0.27902319
C        0.93005036       0.29902488       0.51959465
H       -0.87233876       1.77568273       0.29213031
H       -1.08202025       1.26400571      -1.29925121
H       -1.62806154      -0.92998648      -0.76159540
H       -0.29938283      -0.55920406       1.39112602
H        0.58968440      -1.93391865       0.20164563
H        0.93403215      -1.05320124      -1.27414198
H        1.75075277       0.87831741       0.08789226
H        0.77960501       0.76935352       1.49520965
12
Properties=species:S:1:pos:R:3 pbc="F F F"
C       -0.66112137       0.92555982      -0.36538530
C       -0.95255133      -0.47814787      -0.03329983
C        0.49793918      -0.95327132      -0.27936909
C        0.93443961       0.28385396       0.53613826
H       -0.85946149       1.77764900       0.28526987
H       -1.11862704       1.27195027      -1.29693891
H       -1.62259072      -0.92820688      -0.77800924
H       -0.24973364      -0.55812992       1.40615544
H        0.56769025      -1.93912276       0.19802099
H        0.94649301      -1.05679269      -1.26764524
H        1.74825247       0.87020177       0.10081666
H        0.76927106       0.78445659       1.49424641
12
Properties=species:S:1:pos:R:3 pbc="F F F"
C       -0.67222716       0.92700670      -0.37781716
C       -0.95358999      -0.47294851      -0.04680623
C        0.49559297      -0.95475787      -0.27904180
C        0.93892202       0.26908732       0.55231896
H       -0.84738451       1.77922202       0.27888068
H       -1.15323120       1.28043562      -1.29474187
H       -1.61729416      -0.92652977      -0.79513899
H       -0.20018246      -0.55858222       1.42239439
H        0.54645671      -1.94332646       0.19557911
H        0.95800951      -1.06062122      -1.26055670
H        1.74527057       0.86253720       0.11257338
H        0.75965769       0.79847721       1.49235623
12
Properties=species:S:1:pos:R:3 pbc="F F F"
C       -0.68410990       0.92899455      -0.39005929
C       -0.95489944      -0.46745659      -0.06137224
C        0.49297173      -0.95593278      -0.27796880
C        0.94339987       0.25482796       0.56809451
H       -0.83627498       1.78046308       0.27289363
H       -1.18555046       1.28937540      -1.29314053
H       -1.61237233      -0.92489393      -0.81292652
H       -0.14968337      -0.56072409       1.43990779
H        0.52593134      -1.94655339       0.19434941
H        0.96840654      -1.06458212      -1.25288168
H        1.74175404       0.85534390       0.12320753
H        0.75042698       0.81113800       1.48989618
12
Properties=species:S:1:pos:R:3 pbc="F F F"
C       -0.69684758       0.93152888      -0.40215985
C       -0.95643763      -0.46165764      -0.07695596
C        0.48999744      -0.95678981      -0.27620394
C        0.94786091       0.24099139       0.58366605
H       -0.82602911       1.78153899       0.26711030
H       -1.21597421       1.29872849      -1.29227781
H       -1.60765080      -0.92330173      -0.83135409
H       -0.09784069      -0.56488867       1.45896453
H        0.50583692      -1.94900742       0.19404084
H        0.97772967      -1.06856531      -1.24465210
H        1.73784606       0.84846113       0.13306974
H        0.74150901       0.82296171       1.48675230
12
Properties=species:S:1:pos:R:3 pbc="F F F"
C       -0.71022340       0.93463910      -0.41445475
C       -0.95808503      -0.45541677      -0.09364051
C        0.48668303      -0.95732104      -0.27371266
C        0.95230283       0.22766130       0.59899881
H       -0.81629775       1.78251214       0.26115166
H       -1.24549500       1.30845633      -1.29201018
H       -1.60302962      -0.92155522      -0.85056419
H       -0.04407081      -0.57098170       1.47965485
H        0.48599908      -1.95067867       0.19479494
H        0.98605006      -1.07266831      -1.23580508
H        1.73361307       0.84196671       0.14234841
H        0.73255354       0.83338616       1.48323868
12
Properties=species:S:1:pos:R:3 pbc="F F F"
C       -0.72438935       0.93840208      -0.42691631
C       -0.96006039      -0.44870748      -0.11141536
C        0.48287601      -0.95749600      -0.27039189
C        0.95662859       0.21487128       0.61408438
H       -0.80743456       1.78339834       0.25509539
H       -1.27350179       1.31862272      -1.29289344
H       -1.59877790      -0.91971839      -0.87048431
H        0.01288539      -0.57923286       1.50185113
H        0.46628627      -1.95158876       0.19661537
H        0.99323523      -1.07681441      -1.22628014
H        1.72904393       0.83581766       0.15104794
H        0.72320857       0.84244582       1.47968724
12
Properties=species:S:1:pos:R:3 pbc="F F F"
C       -0.73927653       0.94285582      -0.43978875
C       -0.96228788      -0.44142268      -0.13040099
C        0.47847229      -0.95730766      -0.26621705
C        0.96076956       0.20265245       0.62900931
H       -0.79926239       1.78430906       0.24862341
H       -1.30064798       1.32925558      -1.29486977
H       -1.59472512      -0.91766701      -0.89128465
H        0.07386407      -0.58998485       1.52580432
H        0.44636560      -1.95176291       0.19953071
H        0.99933541      -1.08107256      -1.21597235
H        1.72417841       0.83000232       0.15940833
H        0.71321456       0.85014243       1.47615750
12
Properties=species:S:1:pos:R:3 pbc="F F F"
C       -0.75492582       0.94807790      -0.45323789
C       -0.96483823      -0.43340318      -0.15067640
C        0.47329088      -0.95671869      -0.26103308
C        0.96461463       0.19114631       0.64380568
H       -0.79187918       1.78532769       0.24152487
H       -1.32688507       1.34035206      -1.29828024
H       -1.59095034      -0.91527048      -0.91299277
H        0.14034498      -0.60363632       1.55134568
H        0.42594031      -1.95116850       0.20370652
H        1.00423721      -1.08550120      -1.20468033
H        1.71890542       0.82468570       0.16755250
H        0.70214521       0.85610871       1.47296546
12
Properties=species:S:1:pos:R:3 pbc="F F F"
C       -0.77140510       0.95416306      -0.46740865
C       -0.96786348      -0.42456641      -0.17231941
C        0.46707677      -0.95570205      -0.25466901
C        0.96798508       0.18040662       0.65850405
H       -0.78542298       1.78658733       0.23362282
H       -1.35194723       1.35197029      -1.30365702
H       -1.58761919      -0.91251124      -0.93565630
H        0.21442823      -0.62028576       1.57799839
H        0.40460492      -1.94975791       0.20935072
H        1.00778382      -1.09018564      -1.19217928
H        1.71301398       0.82006821       0.17563115
H        0.68936519       0.85981350       1.47078253
12
Properties=species:S:1:pos:R:3 pbc="F F F"
C       -0.78857470       0.96116021      -0.48261112
C       -0.97128020      -0.41480500      -0.19558255
C        0.45971588      -0.95432183      -0.24698294
C        0.97085109       0.17047525       0.67312237
H       -0.77960012       1.78811732       0.22462273
H       -1.37662343       1.36428874      -1.31068327
H       -1.58452596      -0.90927172      -0.95961967
H        0.29723098      -0.63971365       1.60513700
H        0.38195929      -1.94745280       0.21688514
H        1.01006172      -1.09551999      -1.17814907
H        1.70635534       0.81637969       0.18378287
H        0.67443010       0.86066377       1.47007851
12
Properties=species:S:1:pos:R:3 pbc="F F F"
C       -0.80626842       0.96915117      -0.49919175
C       -0.97503875      -0.40405271      -0.22086488
C        0.45103963      -0.95268100      -0.23774487
C        0.97312341       0.16135779       0.68763600
H       -0.77417324       1.78994162       0.21424171
H       -1.40171781       1.37758755      -1.31893577
H       -1.58138910      -0.90539394      -0.98553117
H        0.39046789      -0.66138870       1.63173602
H        0.35742286      -1.94410778       0.22697479
H        1.01113321      -1.10215504      -1.16210920
H        1.69863468       0.81391184       0.19211364
H        0.65676563       0.85782919       1.47167548
12
Properties=species:S:1:pos:R:3 pbc="F F F"
C       -0.82435837       0.97833850      -0.51761268
C       -0.97908070      -0.39207605      -0.24875892
C        0.44071895      -0.95094088      -0.22659696
C        0.97466068       0.15320903       0.70212019
H       -0.76899829       1.79217276       0.20207097
H       -1.42809819       1.39225826      -1.32803791
H       -1.57776588      -0.90054960      -1.01430718
H        0.49689860      -0.68507734       1.65655482
H        0.33012621      -1.93950209       0.24070847
H        1.01099321      -1.11107169      -1.14336282
H        1.68940784       0.81322319       0.20083637
H        0.63549594       0.85001590       1.47638563
12
Properties=species:S:1:pos:R:3 pbc="F F F"
C       -0.84285760       0.98855171      -0.53762642
C       -0.98342496      -0.37930877      -0.27960239
C        0.42859431      -0.94920309      -0.21321391
C        0.97544066       0.14558712       0.71678468
H       -0.76454181       1.79423612       0.18890739
H       -1.45522334       1.40851373      -1.33803636
H       -1.57371278      -0.89495743      -1.04653616
H        0.61686835      -0.70790886       1.67650896
H        0.29972134      -1.93348829       0.25874907
H        1.00957223      -1.12241387      -1.12141197
H        1.67855909       0.81392851       0.21000742
H        0.61100451       0.83646312       1.48546969
12
Properties=species:S:1:pos:R:3 pbc="F F F"
C       -0.86145644       0.99978863      -0.55882664
C       -0.98709477      -0.36549223      -0.31361639
C        0.41431774      -0.94765042      -0.19754016
C        0.97551476       0.13867923       0.73170623
H       -0.76080906       1.79604625       0.17508452
H       -1.48327485       1.42615814      -1.34795092
H       -1.56759852      -0.88827164      -1.08253943
H        0.75019597      -0.72850448       1.68928693
H        0.26549834      -1.92554826       0.28197687
H        1.00646253      -1.13738807      -1.09577647
H        1.66565038       0.81633537       0.21970526
H        0.58259391       0.81584748       1.49849018
12
Properties=species:S:1:pos:R:3 pbc="F F F"
C       -0.88067434       1.01126350      -0.57947609
C       -0.98980830      -0.35187876      -0.34968560
C        0.39871437      -0.94617910      -0.17999109
C        0.97581868       0.13135277       0.74723604
H       -0.75819381       1.79649109       0.16283981
H       -1.51037822       1.44436744      -1.35814763
H       -1.56008005      -0.88154122      -1.12101316
H        0.88774503      -0.74138820       1.69078005
H        0.22898748      -1.91587697       0.30920467
H        1.00204762      -1.15445161      -1.06720025
H        1.65201358       0.81881523       0.22982859
H        0.55380797       0.78902583       1.51562465
12
Properties=species:S:1:pos:R:3 pbc="F F F"
C       -0.90039426       1.02255918      -0.59867857
C       -0.99031329      -0.33860010      -0.38674610
C        0.38263700      -0.94465070      -0.16153261
C        0.97729235       0.12328717       0.76331757
H       -0.75581413       1.79552592       0.15234929
H       -1.53735715       1.46214252      -1.36720045
H       -1.55030483      -0.87509135      -1.16020014
H        1.02108150      -0.74610471       1.68259520
H        0.19143921      -1.90474919       0.33833907
H        0.99664561      -1.17294484      -1.03692890
H        1.63867088       0.82063088       0.24016394
H        0.52641712       0.75799521       1.53452170
12
Properties=species:S:1:pos:R:3 pbc="F F F"
C       -0.92070996       1.03343830      -0.61634235
C       -0.98818901      -0.32580328      -0.42412316
C        0.36692768      -0.94293287      -0.14284249
C        0.98048114       0.11398890       0.78002536
H       -0.75232008       1.79338290       0.14283788
H       -1.56574685       1.47891252      -1.37412433
H       -1.53857337      -0.86919407      -1.19893361
H        1.14457498      -0.74289898       1.66704103
H        0.15389152      -1.89277108       0.36747313
H        0.99104150      -1.19188477      -1.00592536
H        1.62647861       0.82116917       0.25093520
H        0.50214384       0.72459326       1.55397870
12
Properties=species:S:1:pos:R:3 pbc="F F F"
C       -0.94181060       1.04393772      -0.63265904
C       -0.98326348      -0.31302164      -0.46170525
C        0.35181238      -0.94085456      -0.12419064
C        0.98537050       0.10354353       0.79746367
H       -0.74713129       1.79051990       0.13324797
H       -1.59634666       1.49419688      -1.37869865
H       -1.52502092      -0.86354696      -1.23680244
H        1.25792798      -0.73376203       1.64609409
H        0.11645905      -1.88003326       0.39599343
H        0.98547523      -1.21126602      -0.97452801
H        1.61539745       0.82069456       0.26252189
H        0.48113036       0.68959190       1.57326296
12
Properties=species:S:1:pos:R:3 pbc="F F F"
C       -0.96346264       1.05394731      -0.64826587
C       -0.97490009      -0.30040452      -0.50030242
C        0.33738157      -0.93820296      -0.10581732
C        0.99203680       0.09166572       0.81538507
H       -0.73833003       1.78743510       0.12189479
H       -1.63258456       1.50797847      -1.37835009
H       -1.50873220      -0.85834749      -1.27490951
H        1.36078936      -0.72029408       1.62219169
H        0.07849666      -1.86593916       0.42336874
H        0.98017055      -1.23118326      -0.94232345
H        1.60583364       0.81876923       0.27493307
H        0.46330095       0.65457563       1.59219529
12
Properties=species:S:1:pos:R:3 pbc="F F F"
C       -0.98700496       1.06342650      -0.66179122
C       -0.96372992      -0.28725679      -0.53857733
C        0.32369461      -0.93467016      -0.08819361
C        1.00036158       0.07843538       0.83406831
H       -0.72789115       1.78424925       0.10946358
H       -1.66931886       1.51914808      -1.37773196
H       -1.49214117      -0.85333688      -1.31024937
H        1.45444333      -0.70404108       1.59621528
H        0.04109403      -1.85112016       0.44846567
H        0.97466199      -1.25043273      -0.91080533
H        1.59693921       0.81637251       0.28884724
H        0.44889131       0.61922608       1.61028874
12
Properties=species:S:1:pos:R:3 pbc="F F F"
C       -1.01222160       1.07232394      -0.67398431
C       -0.94873916      -0.27351588      -0.57815214
C        0.31076534      -0.93022184      -0.07135478
C        1.01024703       0.06355098       0.85340139
H       -0.71321139       1.78178482       0.09330690
H       -1.71145773       1.52776973      -1.37289281
H       -1.47377873      -0.84846655      -1.34484603
H        1.53965191      -0.68593056       1.56957699
H        0.00299989      -1.83477235       0.47150989
H        0.96937883      -1.26994918      -0.87898530
H        1.58901374       0.81310338       0.30456408
H        0.43735186       0.58432351       1.62785612
12
Properties=species:S:1:pos:R:3 pbc="F F F"
C       -1.03932665       1.08078497      -0.68490133
C       -0.92849865      -0.25815921      -0.62129336
C        0.29807503      -0.92496936      -0.05472983
C        1.02140074       0.04714717       0.87349113
H       -0.69430196       1.78035962       0.07204053
H       -1.76163297       1.53334973      -1.36111803
H       -1.45127954      -0.84248378      -1.38174984
H        1.62040994      -0.66606351       1.54093962
H       -0.03851587      -1.81540096       0.49433087
H        0.96406971      -1.29270549      -0.84474983
H        1.58137670       0.80950342       0.32243998
H        0.42822350       0.54863740       1.64530009
12
Properties=species:S:1:pos:R:3 pbc="F F F"
C       -1.06974242       1.08813119      -0.69262377
C       -0.90224340      -0.24065678      -0.66746358
C        0.28640498      -0.91821965      -0.03965978
C        1.03403005       0.02861646       0.89445688
H       -0.67062059       1.78093644       0.04372647
H       -1.81682500       1.53412692      -1.34513460
H       -1.42852813      -0.83627778      -1.41598238
H        1.69465203      -0.64566634       1.51236658
H       -0.08199389      -1.79311419       0.51390830
H        0.95904070      -1.31599302      -0.81016486
H        1.57422344       0.80571912       0.34380687
H        0.42160223       0.51239764       1.66276388
12
Properties=species:S:1:pos:R:3 pbc="F F F"
C       -1.10264959       1.09416097      -0.69734170
C       -0.86567876      -0.21866951      -0.72114486
C        0.27583275      -0.90957069      -0.02636416
C        1.04803270       0.00779740       0.91644208
H       -0.64423678       1.78386589       0.00682291
H       -1.87871008       1.52853630      -1.32246236
H       -1.40581065      -0.82923808      -1.44678958
H        1.76588459      -0.62466267       1.48170750
H       -0.13123550      -1.76491749       0.53064037
H        0.95457738      -1.34324871      -0.77274393
H        1.56705970       0.80259903       0.37018032
H        0.41693423       0.47334758       1.68105342
12
Properties=species:S:1:pos:R:3 pbc="F F F"
C       -1.13666376       1.09764464      -0.69888418
C       -0.81837708      -0.19075704      -0.78086409
C        0.26713838      -0.89781654      -0.01673320
C        1.06347410      -0.01622470       0.93968957
H       -0.61723789       1.79084033      -0.04168768
H       -1.94290869       1.51380707      -1.29675614
H       -1.38791540      -0.82225143      -1.46463171
H        1.83222301      -0.60435886       1.45119008
H       -0.18424918      -1.73074074       0.54008044
H        0.95013268      -1.37036971      -0.73617374
H        1.56031231       0.80012127       0.40401037
H        0.41407151       0.43010571       1.70076029
