13
Properties=species:S:1:pos:R:3 pbc="F F F"
Ar       0.34918998      -0.84349860       0.58047443
Ar      -0.63106228      -0.87870054       0.00445351
Ar       0.35799670      -0.85558812      -0.55693933
Ar      -0.53220336      -0.20878949       0.91844467
Ar       0.51795379       0.22835074       0.92192944
Ar      -0.35799670       0.85558812       0.55693933
Ar      -0.51795379      -0.22835074      -0.92192944
Ar       1.06812768      -0.17139279       0.01009198
Ar      -1.06812768       0.17139279      -0.01009198
Ar       0.53220336       0.20878949      -0.91844467
Ar      -0.34918998       0.84349860      -0.58047443
Ar       0.63106228       0.87870054      -0.00445351
Ar       0.00000000       0.00000000       0.00000000
13
Properties=species:S:1:pos:R:3 pbc="F F F"
Ar       0.22835074      -0.51795379       0.92192944
Ar      -0.17139279      -1.06812768       0.01009198
Ar       0.20878949      -0.53220336      -0.91844467
Ar      -0.84349860      -0.34918998       0.58047443
Ar       0.85558812       0.35799670       0.55693933
Ar      -0.20878949       0.53220336       0.91844467
Ar      -0.85558812      -0.35799670      -0.55693933
Ar       0.87870054      -0.63106228      -0.00445351
Ar      -0.87870054       0.63106228       0.00445351
Ar       0.84349860       0.34918998      -0.58047443
Ar      -0.22835074       0.51795379      -0.92192944
Ar       0.17139279       1.06812768      -0.01009198
Ar       0.00000000      -0.00000000       0.00000000
